!- Windows Line endings 

Version,
    22.2;                     !- Version Identifier

SimulationControl,
    Yes,                      !- Do Zone Sizing Calculation
    Yes,                      !- Do System Sizing Calculation
    No,                       !- Do Plant Sizing Calculation
    No,                       !- Run Simulation for Sizing Periods
    Yes,                      !- Run Simulation for Weather File Run Periods
    No,                       !- Do HVAC Sizing Simulation for Sizing Periods
    1;                        !- Maximum Number of HVAC Sizing Simulation Passes

Building,
    Building,                 !- Name
    0,                        !- North Axis
    Suburbs,                  !- Terrain
    0.04,                     !- Loads Convergence Tolerance Value
    0.4,                      !- Temperature Convergence Tolerance Value
    FullExterior,             !- Solar Distribution
    25,                       !- Maximum Number of Warmup Days
    6;                        !- Minimum Number of Warmup Days

ShadowCalculation,
    PolygonClipping,          !- Shading Calculation Method
    Periodic,                 !- Shading Calculation Update Frequency Method
    20,                       !- Shading Calculation Update Frequency
    15000,                    !- Maximum Figures in Shadow Overlap Calculations
    SutherlandHodgman,        !- Polygon Clipping Algorithm
    ;                         !- Pixel Counting Resolution

SurfaceConvectionAlgorithm:Inside,
    TARP;                     !- Algorithm

SurfaceConvectionAlgorithm:Outside,
    DOE-2;                    !- Algorithm

HeatBalanceAlgorithm,
    ConductionTransferFunction,    !- Algorithm
    2000,                     !- Surface Temperature Upper Limit
    1e-08,                    !- Minimum Surface Convection Heat Transfer Coefficient Value
    1000;                     !- Maximum Surface Convection Heat Transfer Coefficient Value

ZoneCapacitanceMultiplier:ResearchSpecial,
    All,                      !- Name
    ,                         !- Zone or ZoneList Name
    1,                        !- Temperature Capacity Multiplier
    1,                        !- Humidity Capacity Multiplier
    1,                        !- Carbon Dioxide Capacity Multiplier
    1;                        !- Generic Contaminant Capacity Multiplier

Timestep,
    2;                        !- Number of Timesteps per Hour

ConvergenceLimits,
    1,                        !- Minimum System Timestep
    25;                       !- Maximum HVAC Iterations

Site:Location,
    test_1 (O1-O1:31-12)  (01-01:31-12),    !- Name
    39.93,                    !- Latitude
    116.28,                   !- Longitude
    8,                        !- Time Zone
    55;                       !- Elevation

SizingPeriod:DesignDay,
    Summer Design Day in test_1 (O1-O1:31-12) Jul,    !- Name
    7,                        !- Month
    15,                       !- Day of Month
    SummerDesignDay,          !- Day Type
    37.7,                     !- Maximum DryBulb Temperature
    11.9,                     !- Daily DryBulb Temperature Range
    ,                         !- DryBulb Temperature Range Modifier Type
    ,                         !- DryBulb Temperature Range Modifier Day Schedule Name
    WetBulb,                  !- Humidity Condition Type
    22.9,                     !- Wetbulb or DewPoint at Maximum DryBulb
    ,                         !- Humidity Condition Day Schedule Name
    ,                         !- Humidity Ratio at Maximum DryBulb
    ,                         !- Enthalpy at Maximum DryBulb
    ,                         !- Daily WetBulb Temperature Range
    100666,                   !- Barometric Pressure
    0,                        !- Wind Speed
    0,                        !- Wind Direction
    No,                       !- Rain Indicator
    No,                       !- Snow Indicator
    No,                       !- Daylight Saving Time Indicator
    ASHRAEClearSky,           !- Solar Model Indicator
    ,                         !- Beam Solar Day Schedule Name
    ,                         !- Diffuse Solar Day Schedule Name
    ,                         !- ASHRAE Clear Sky Optical Depth for Beam Irradiance taub
    ,                         !- ASHRAE Clear Sky Optical Depth for Diffuse Irradiance taud
    0.98;                     !- Sky Clearness

SizingPeriod:DesignDay,
    Summer Design Day in test_1 (O1-O1:31-12) Aug,    !- Name
    8,                        !- Month
    15,                       !- Day of Month
    SummerDesignDay,          !- Day Type
    35,                       !- Maximum DryBulb Temperature
    11.2,                     !- Daily DryBulb Temperature Range
    ,                         !- DryBulb Temperature Range Modifier Type
    ,                         !- DryBulb Temperature Range Modifier Day Schedule Name
    WetBulb,                  !- Humidity Condition Type
    23.7,                     !- Wetbulb or DewPoint at Maximum DryBulb
    ,                         !- Humidity Condition Day Schedule Name
    ,                         !- Humidity Ratio at Maximum DryBulb
    ,                         !- Enthalpy at Maximum DryBulb
    ,                         !- Daily WetBulb Temperature Range
    100666,                   !- Barometric Pressure
    0,                        !- Wind Speed
    0,                        !- Wind Direction
    No,                       !- Rain Indicator
    No,                       !- Snow Indicator
    No,                       !- Daylight Saving Time Indicator
    ASHRAEClearSky,           !- Solar Model Indicator
    ,                         !- Beam Solar Day Schedule Name
    ,                         !- Diffuse Solar Day Schedule Name
    ,                         !- ASHRAE Clear Sky Optical Depth for Beam Irradiance taub
    ,                         !- ASHRAE Clear Sky Optical Depth for Diffuse Irradiance taud
    0.98;                     !- Sky Clearness

SizingPeriod:DesignDay,
    Summer Design Day in test_1 (O1-O1:31-12) Sep,    !- Name
    9,                        !- Month
    15,                       !- Day of Month
    SummerDesignDay,          !- Day Type
    31.9,                     !- Maximum DryBulb Temperature
    12.8,                     !- Daily DryBulb Temperature Range
    ,                         !- DryBulb Temperature Range Modifier Type
    ,                         !- DryBulb Temperature Range Modifier Day Schedule Name
    WetBulb,                  !- Humidity Condition Type
    21.1,                     !- Wetbulb or DewPoint at Maximum DryBulb
    ,                         !- Humidity Condition Day Schedule Name
    ,                         !- Humidity Ratio at Maximum DryBulb
    ,                         !- Enthalpy at Maximum DryBulb
    ,                         !- Daily WetBulb Temperature Range
    100666,                   !- Barometric Pressure
    0,                        !- Wind Speed
    0,                        !- Wind Direction
    No,                       !- Rain Indicator
    No,                       !- Snow Indicator
    No,                       !- Daylight Saving Time Indicator
    ASHRAEClearSky,           !- Solar Model Indicator
    ,                         !- Beam Solar Day Schedule Name
    ,                         !- Diffuse Solar Day Schedule Name
    ,                         !- ASHRAE Clear Sky Optical Depth for Beam Irradiance taub
    ,                         !- ASHRAE Clear Sky Optical Depth for Diffuse Irradiance taud
    0.98;                     !- Sky Clearness

SizingPeriod:DesignDay,
    Winter Design Day in test_1 (O1-O1:31-12),    !- Name
    1,                        !- Month
    15,                       !- Day of Month
    WinterDesignDay,          !- Day Type
    -11,                      !- Maximum DryBulb Temperature
    0,                        !- Daily DryBulb Temperature Range
    ,                         !- DryBulb Temperature Range Modifier Type
    ,                         !- DryBulb Temperature Range Modifier Day Schedule Name
    WetBulb,                  !- Humidity Condition Type
    -11,                      !- Wetbulb or DewPoint at Maximum DryBulb
    ,                         !- Humidity Condition Day Schedule Name
    ,                         !- Humidity Ratio at Maximum DryBulb
    ,                         !- Enthalpy at Maximum DryBulb
    ,                         !- Daily WetBulb Temperature Range
    100666,                   !- Barometric Pressure
    12.2,                     !- Wind Speed
    0,                        !- Wind Direction
    No,                       !- Rain Indicator
    No,                       !- Snow Indicator
    No,                       !- Daylight Saving Time Indicator
    ,                         !- Solar Model Indicator
    ,                         !- Beam Solar Day Schedule Name
    ,                         !- Diffuse Solar Day Schedule Name
    ,                         !- ASHRAE Clear Sky Optical Depth for Beam Irradiance taub
    ,                         !- ASHRAE Clear Sky Optical Depth for Diffuse Irradiance taud
    0;                        !- Sky Clearness

RunPeriod,
    test_1 (O1-O1:31-12),     !- Name
    1,                        !- Begin Month
    1,                        !- Begin Day of Month
    ,                         !- Begin Year
    12,                       !- End Month
    31,                       !- End Day of Month
    ,                         !- End Year
    ,                         !- Day of Week for Start Day
    No,                       !- Use Weather File Holidays and Special Days
    Yes,                      !- Use Weather File Daylight Saving Period
    Yes,                      !- Apply Weekend Holiday Rule
    Yes,                      !- Use Weather File Rain Indicators
    Yes,                      !- Use Weather File Snow Indicators
    ;                         !- Treat Weather as Actual

Site:GroundTemperature:BuildingSurface,
    18,                       !- January Ground Temperature
    18,                       !- February Ground Temperature
    18,                       !- March Ground Temperature
    18,                       !- April Ground Temperature
    18,                       !- May Ground Temperature
    18,                       !- June Ground Temperature
    18,                       !- July Ground Temperature
    18,                       !- August Ground Temperature
    18,                       !- September Ground Temperature
    18,                       !- October Ground Temperature
    18,                       !- November Ground Temperature
    18;                       !- December Ground Temperature

Site:GroundTemperature:FCfactorMethod,
    0.14,                     !- January Ground Temperature
    -1.08,                    !- February Ground Temperature
    1.09,                     !- March Ground Temperature
    4.49,                     !- April Ground Temperature
    13.37,                    !- May Ground Temperature
    20.22,                    !- June Ground Temperature
    24.85,                    !- July Ground Temperature
    26.25,                    !- August Ground Temperature
    23.86,                    !- September Ground Temperature
    18.53,                    !- October Ground Temperature
    11.42,                    !- November Ground Temperature
    4.82;                     !- December Ground Temperature

Site:GroundTemperature:Shallow,
    14,                       !- January Surface Ground Temperature
    14,                       !- February Surface Ground Temperature
    14,                       !- March Surface Ground Temperature
    14,                       !- April Surface Ground Temperature
    14,                       !- May Surface Ground Temperature
    14,                       !- June Surface Ground Temperature
    14,                       !- July Surface Ground Temperature
    14,                       !- August Surface Ground Temperature
    14,                       !- September Surface Ground Temperature
    14,                       !- October Surface Ground Temperature
    14,                       !- November Surface Ground Temperature
    14;                       !- December Surface Ground Temperature

Site:GroundTemperature:Deep,
    14,                       !- January Deep Ground Temperature
    14,                       !- February Deep Ground Temperature
    14,                       !- March Deep Ground Temperature
    14,                       !- April Deep Ground Temperature
    14,                       !- May Deep Ground Temperature
    14,                       !- June Deep Ground Temperature
    14,                       !- July Deep Ground Temperature
    14,                       !- August Deep Ground Temperature
    14,                       !- September Deep Ground Temperature
    14,                       !- October Deep Ground Temperature
    14,                       !- November Deep Ground Temperature
    14;                       !- December Deep Ground Temperature

Site:GroundReflectance,
    0.2,                      !- January Ground Reflectance
    0.2,                      !- February Ground Reflectance
    0.2,                      !- March Ground Reflectance
    0.2,                      !- April Ground Reflectance
    0.2,                      !- May Ground Reflectance
    0.2,                      !- June Ground Reflectance
    0.2,                      !- July Ground Reflectance
    0.2,                      !- August Ground Reflectance
    0.2,                      !- September Ground Reflectance
    0.2,                      !- October Ground Reflectance
    0.2,                      !- November Ground Reflectance
    0.2;                      !- December Ground Reflectance

Site:GroundReflectance:SnowModifier,
    2,                        !- Ground Reflected Solar Modifier
    2;                        !- Daylighting Ground Reflected Solar Modifier

ScheduleTypeLimits,
    Any Number;               !- Name

ScheduleTypeLimits,
    Fraction,                 !- Name
    0,                        !- Lower Limit Value
    1,                        !- Upper Limit Value
    CONTINUOUS;               !- Numeric Type

ScheduleTypeLimits,
    Temperature,              !- Name
    -60,                      !- Lower Limit Value
    200,                      !- Upper Limit Value
    CONTINUOUS;               !- Numeric Type

ScheduleTypeLimits,
    Control Type,             !- Name
    0,                        !- Lower Limit Value
    4,                        !- Upper Limit Value
    DISCRETE;                 !- Numeric Type

ScheduleTypeLimits,
    On/Off,                   !- Name
    0,                        !- Lower Limit Value
    1,                        !- Upper Limit Value
    DISCRETE;                 !- Numeric Type

Schedule:Day:Hourly,
    0,                        !- Name
    Any Number,               !- Schedule Type Limits Name
    0,                        !- Hour 1
    0,                        !- Hour 2
    0,                        !- Hour 3
    0,                        !- Hour 4
    0,                        !- Hour 5
    0,                        !- Hour 6
    0,                        !- Hour 7
    0,                        !- Hour 8
    0,                        !- Hour 9
    0,                        !- Hour 10
    0,                        !- Hour 11
    0,                        !- Hour 12
    0,                        !- Hour 13
    0,                        !- Hour 14
    0,                        !- Hour 15
    0,                        !- Hour 16
    0,                        !- Hour 17
    0,                        !- Hour 18
    0,                        !- Hour 19
    0,                        !- Hour 20
    0,                        !- Hour 21
    0,                        !- Hour 22
    0,                        !- Hour 23
    0;                        !- Hour 24

Schedule:Day:Hourly,
    50,                       !- Name
    Any Number,               !- Schedule Type Limits Name
    50,                       !- Hour 1
    50,                       !- Hour 2
    50,                       !- Hour 3
    50,                       !- Hour 4
    50,                       !- Hour 5
    50,                       !- Hour 6
    50,                       !- Hour 7
    50,                       !- Hour 8
    50,                       !- Hour 9
    50,                       !- Hour 10
    50,                       !- Hour 11
    50,                       !- Hour 12
    50,                       !- Hour 13
    50,                       !- Hour 14
    50,                       !- Hour 15
    50,                       !- Hour 16
    50,                       !- Hour 17
    50,                       !- Hour 18
    50,                       !- Hour 19
    50,                       !- Hour 20
    50,                       !- Hour 21
    50,                       !- Hour 22
    50,                       !- Hour 23
    50;                       !- Hour 24

Schedule:Day:Hourly,
    Off,                      !- Name
    Fraction,                 !- Schedule Type Limits Name
    0,                        !- Hour 1
    0,                        !- Hour 2
    0,                        !- Hour 3
    0,                        !- Hour 4
    0,                        !- Hour 5
    0,                        !- Hour 6
    0,                        !- Hour 7
    0,                        !- Hour 8
    0,                        !- Hour 9
    0,                        !- Hour 10
    0,                        !- Hour 11
    0,                        !- Hour 12
    0,                        !- Hour 13
    0,                        !- Hour 14
    0,                        !- Hour 15
    0,                        !- Hour 16
    0,                        !- Hour 17
    0,                        !- Hour 18
    0,                        !- Hour 19
    0,                        !- Hour 20
    0,                        !- Hour 21
    0,                        !- Hour 22
    0,                        !- Hour 23
    0;                        !- Hour 24

Schedule:Day:Hourly,
    Summer Control Type Day Sch,    !- Name
    Control Type,             !- Schedule Type Limits Name
    4,                        !- Hour 1
    4,                        !- Hour 2
    4,                        !- Hour 3
    4,                        !- Hour 4
    4,                        !- Hour 5
    4,                        !- Hour 6
    4,                        !- Hour 7
    4,                        !- Hour 8
    4,                        !- Hour 9
    4,                        !- Hour 10
    4,                        !- Hour 11
    4,                        !- Hour 12
    4,                        !- Hour 13
    4,                        !- Hour 14
    4,                        !- Hour 15
    4,                        !- Hour 16
    4,                        !- Hour 17
    4,                        !- Hour 18
    4,                        !- Hour 19
    4,                        !- Hour 20
    4,                        !- Hour 21
    4,                        !- Hour 22
    4,                        !- Hour 23
    4;                        !- Hour 24

Schedule:Day:Hourly,
    Winter Control Type Day Sch,    !- Name
    Control Type,             !- Schedule Type Limits Name
    4,                        !- Hour 1
    4,                        !- Hour 2
    4,                        !- Hour 3
    4,                        !- Hour 4
    4,                        !- Hour 5
    4,                        !- Hour 6
    4,                        !- Hour 7
    4,                        !- Hour 8
    4,                        !- Hour 9
    4,                        !- Hour 10
    4,                        !- Hour 11
    4,                        !- Hour 12
    4,                        !- Hour 13
    4,                        !- Hour 14
    4,                        !- Hour 15
    4,                        !- Hour 16
    4,                        !- Hour 17
    4,                        !- Hour 18
    4,                        !- Hour 19
    4,                        !- Hour 20
    4,                        !- Hour 21
    4,                        !- Hour 22
    4,                        !- Hour 23
    4;                        !- Hour 24

Schedule:Day:Hourly,
    Summer Control Type Day Sch - cool,    !- Name
    Control Type,             !- Schedule Type Limits Name
    2,                        !- Hour 1
    2,                        !- Hour 2
    2,                        !- Hour 3
    2,                        !- Hour 4
    2,                        !- Hour 5
    2,                        !- Hour 6
    2,                        !- Hour 7
    2,                        !- Hour 8
    2,                        !- Hour 9
    2,                        !- Hour 10
    2,                        !- Hour 11
    2,                        !- Hour 12
    2,                        !- Hour 13
    2,                        !- Hour 14
    2,                        !- Hour 15
    2,                        !- Hour 16
    2,                        !- Hour 17
    2,                        !- Hour 18
    2,                        !- Hour 19
    2,                        !- Hour 20
    2,                        !- Hour 21
    2,                        !- Hour 22
    2,                        !- Hour 23
    2;                        !- Hour 24

Schedule:Day:Hourly,
    Winter Control Type Day Sch - heat,    !- Name
    Control Type,             !- Schedule Type Limits Name
    1,                        !- Hour 1
    1,                        !- Hour 2
    1,                        !- Hour 3
    1,                        !- Hour 4
    1,                        !- Hour 5
    1,                        !- Hour 6
    1,                        !- Hour 7
    1,                        !- Hour 8
    1,                        !- Hour 9
    1,                        !- Hour 10
    1,                        !- Hour 11
    1,                        !- Hour 12
    1,                        !- Hour 13
    1,                        !- Hour 14
    1,                        !- Hour 15
    1,                        !- Hour 16
    1,                        !- Hour 17
    1,                        !- Hour 18
    1,                        !- Hour 19
    1,                        !- Hour 20
    1,                        !- Hour 21
    1,                        !- Hour 22
    1,                        !- Hour 23
    1;                        !- Hour 24

Schedule:Day:Interval,
    11,                       !- Name
    Any number,               !- Schedule Type Limits Name
    No,                       !- Interpolate to Timestep
    24:00,                    !- Time 1
    0;                        !- Value Until Time 1

Schedule:Day:Interval,
    11_-50_12_18,             !- Name
    Any number,               !- Schedule Type Limits Name
    No,                       !- Interpolate to Timestep
    24:00,                    !- Time 1
    -50;                      !- Value Until Time 1

Schedule:Day:Interval,
    11_0_1_1,                 !- Name
    Any number,               !- Schedule Type Limits Name
    No,                       !- Interpolate to Timestep
    24:00,                    !- Time 1
    0;                        !- Value Until Time 1

Schedule:Day:Interval,
    11_100_28_26,             !- Name
    Any number,               !- Schedule Type Limits Name
    No,                       !- Interpolate to Timestep
    24:00,                    !- Time 1
    100;                      !- Value Until Time 1

Schedule:Day:List,
    10000,                    !- Name
    Any number,               !- Schedule Type Limits Name
    No,                       !- Interpolate to Timestep
    60,                       !- Minutes per Item
    1,                        !- Value 1
    1,                        !- Value 2
    1,                        !- Value 3
    1,                        !- Value 4
    1,                        !- Value 5
    1,                        !- Value 6
    1,                        !- Value 7
    1,                        !- Value 8
    1,                        !- Value 9
    1,                        !- Value 10
    1,                        !- Value 11
    1,                        !- Value 12
    1,                        !- Value 13
    1,                        !- Value 14
    1,                        !- Value 15
    1,                        !- Value 16
    1,                        !- Value 17
    1,                        !- Value 18
    1,                        !- Value 19
    1,                        !- Value 20
    1,                        !- Value 21
    1,                        !- Value 22
    1,                        !- Value 23
    1;                        !- Value 24

Schedule:Day:List,
    10001,                    !- Name
    Any number,               !- Schedule Type Limits Name
    No,                       !- Interpolate to Timestep
    60,                       !- Minutes per Item
    0,                        !- Value 1
    0,                        !- Value 2
    0,                        !- Value 3
    0,                        !- Value 4
    0,                        !- Value 5
    0,                        !- Value 6
    0.65,                     !- Value 7
    0.75,                     !- Value 8
    0.35,                     !- Value 9
    0.2,                      !- Value 10
    0.2,                      !- Value 11
    0.4,                      !- Value 12
    0.35,                     !- Value 13
    0.2,                      !- Value 14
    0.2,                      !- Value 15
    0.2,                      !- Value 16
    0.2,                      !- Value 17
    0.4,                      !- Value 18
    0.35,                     !- Value 19
    0.35,                     !- Value 20
    0.6,                      !- Value 21
    0.4,                      !- Value 22
    0,                        !- Value 23
    0;                        !- Value 24

Schedule:Day:List,
    10002,                    !- Name
    Any number,               !- Schedule Type Limits Name
    No,                       !- Interpolate to Timestep
    60,                       !- Minutes per Item
    0,                        !- Value 1
    0,                        !- Value 2
    0,                        !- Value 3
    0,                        !- Value 4
    0,                        !- Value 5
    0.65,                     !- Value 6
    0.65,                     !- Value 7
    0,                        !- Value 8
    0,                        !- Value 9
    0,                        !- Value 10
    0,                        !- Value 11
    0,                        !- Value 12
    0,                        !- Value 13
    0,                        !- Value 14
    0,                        !- Value 15
    0,                        !- Value 16
    0,                        !- Value 17
    0.1,                      !- Value 18
    0.4,                      !- Value 19
    0.4,                      !- Value 20
    0.6,                      !- Value 21
    0.4,                      !- Value 22
    0,                        !- Value 23
    0;                        !- Value 24

Schedule:Day:List,
    10000_-50_12_18,          !- Name
    Any number,               !- Schedule Type Limits Name
    No,                       !- Interpolate to Timestep
    60,                       !- Minutes per Item
    18,                       !- Value 1
    18,                       !- Value 2
    18,                       !- Value 3
    18,                       !- Value 4
    18,                       !- Value 5
    18,                       !- Value 6
    18,                       !- Value 7
    18,                       !- Value 8
    18,                       !- Value 9
    18,                       !- Value 10
    18,                       !- Value 11
    18,                       !- Value 12
    18,                       !- Value 13
    18,                       !- Value 14
    18,                       !- Value 15
    18,                       !- Value 16
    18,                       !- Value 17
    18,                       !- Value 18
    18,                       !- Value 19
    18,                       !- Value 20
    18,                       !- Value 21
    18,                       !- Value 22
    18,                       !- Value 23
    18;                       !- Value 24

Schedule:Day:List,
    10000_0_1_1,              !- Name
    Any number,               !- Schedule Type Limits Name
    No,                       !- Interpolate to Timestep
    60,                       !- Minutes per Item
    1,                        !- Value 1
    1,                        !- Value 2
    1,                        !- Value 3
    1,                        !- Value 4
    1,                        !- Value 5
    1,                        !- Value 6
    1,                        !- Value 7
    1,                        !- Value 8
    1,                        !- Value 9
    1,                        !- Value 10
    1,                        !- Value 11
    1,                        !- Value 12
    1,                        !- Value 13
    1,                        !- Value 14
    1,                        !- Value 15
    1,                        !- Value 16
    1,                        !- Value 17
    1,                        !- Value 18
    1,                        !- Value 19
    1,                        !- Value 20
    1,                        !- Value 21
    1,                        !- Value 22
    1,                        !- Value 23
    1;                        !- Value 24

Schedule:Day:List,
    10000_100_28_26,          !- Name
    Any number,               !- Schedule Type Limits Name