! *** EVALUATION SOFTWARE GENERATES COMPRESSED IDF - TO OBTAIN READABLE IDF PLEASE PURCHASE A LICENCE ***
! File generated by DesignBuilder - 6.1.3.008 2025/1/9 - 10:39:26
! Source file: D:\OneDrive\Classes\Software and Modelization\DesignBuilder\OfficeBuilding.dsb

Version, 8.9.0.001;

RunPeriod,
Untitled (O1-O1:31-12),
1,1,
12,31,
UseWeatherFile,
No,
Yes,
Yes,
Yes,
Yes,
1;


Site:Location,Untitled (O1-O1:31-12)  (01-01:31-12),
22.55,
114.1,
8,
18;

Site:GroundTemperature:BuildingSurface,
18,
18,
18,
18,
18,
18,
18,
18,
18,
18,
18,
18;

Site:GroundTemperature:Deep,
14,
14,
14,
14,
14,
14,
14,
14,
14,
14,
14,
14;

Site:GroundTemperature:Shallow,
14,
14,
14,
14,
14,
14,
14,
14,
14,
14,
14,
14;

Site:GroundTemperature:FCfactorMethod,
17.37,
16.83,
17.79,
19.29,
23.21,
26.23,
28.27,
28.89,
27.84,
25.49,
22.35,
19.44;

Site:GroundReflectance, 
0.2,
0.2,
0.2,
0.2,
0.2,
0.2,
0.2,
0.2,
0.2,
0.2,
0.2,
0.2;

Site:GroundReflectance:SnowModifier,
2.0,
2.0;

SimulationControl,
Yes,
Yes,
No,
No,
Yes;


SizingPeriod:DesignDay, Summer Design Day in Untitled (O1-O1:31-12) Jul,
7,
15,
SummerDesignDay,
35,
6.2,
,
,
WetBulb,
27.2,
,
,
,
,
101108.9,
0,
0,
No,
No,
No,
ASHRAEClearSky,
,
,
,
,
0.98;

SizingPeriod:DesignDay, Summer Design Day in Untitled (O1-O1:31-12) Aug,
8,
15,
SummerDesignDay,
35,
6.7,
,
,
WetBulb,
26.6,
,
,
,
,
101108.9,
0,
0,
No,
No,
No,
ASHRAEClearSky,
,
,
,
,
0.98;

SizingPeriod:DesignDay, Summer Design Day in Untitled (O1-O1:31-12) Sep,
9,
15,
SummerDesignDay,
34.4,
6.7,
,
,
WetBulb,
25.7,
,
,
,
,
101108.9,
0,
0,
No,
No,
No,
ASHRAEClearSky,
,
,
,
,
0.98;

SizingPeriod:DesignDay, Winter Design Day in Untitled (O1-O1:31-12),
1,
15,
WinterDesignDay,
7.1,
0,
,
,
WetBulb,
7.1,
,
,
,
,
101108.9,
8.3,
0,
No,
No,
No,
,
,
,
,
,
0;

Timestep, 2;

ConvergenceLimits,
1,
25;

ScheduleTypeLimits, Any Number;                         ! Not limited
ScheduleTypeLimits, Fraction,     0.0, 1.0, CONTINUOUS;
ScheduleTypeLimits, Temperature,  -60, 200, CONTINUOUS;
ScheduleTypeLimits, Control Type,   0,   4, DISCRETE;
ScheduleTypeLimits, On/Off,         0,   1, DISCRETE;

Schedule:Compact, 
      On,                                         ! Name
      Any Number,                                 ! Type
      Through: 12/31,                             ! Type
      For: AllDays,                               ! All days in year
      Until: 24:00,                               ! All hours in day
       1;     

Schedule:Compact, 
      Off,                                        ! Name
      Any Number,                                 ! Type
      Through: 12/31,                             ! Type
      For: AllDays,                               ! All days in year
      Until: 24:00,                               ! All hours in day
       0;     

Schedule:Compact, 
      Work efficiency,                            ! Name
      Any Number,                                 ! Type
      Through: 12/31,                             ! Type
      For: AllDays,                               ! All days in year
      Until: 24:00,                               ! All hours in day
       0;     

Schedule:Compact,
      OpaqueShade,                                ! Name
      Any Number,                                 ! Type
      Through: 12/31,                             ! Type
      For: AllDays,                               ! All days in year
      Until: 24:00,                               ! All hours in day
       0;     
       
Schedule:Compact,
    Zone Comfort Control Type Sched,              !- Name
    Control Type,                                 !- Schedule Type Limits Name
    Through: 12/31,                               !- Field 1
    For: AllDays,                                 !- Field 2
    Until: 24:00,                                 !- Field 3
    4;                                            !- Field 4

Schedule:Compact,
    Design Days Only,                             !- Name
    Any Number,                                   !- Schedule Type Limits Name
    Through: 12/31,                               !- Field 1
    For: SummerDesignDay WinterDesignDay,         !- Field 2
    Until: 24:00,                                 !- Field 3
    1,                                            !- Field 4
    For: AllOtherDays,                            !- Field 2
    Until: 24:00,                                 !- Field 3
    0;
      
! off heating day
Schedule:Day:Hourly,  0, Any Number,
   0,0,0,0,0,0,0,0,0,0,0,0,0,0,0,0,0,0,0,0,0,0,0,0;

! off cooling day
Schedule:Day:Hourly,  50, Any Number,
   50,50,50,50,50,50,50,50,50,50,50,50,50,50,50,50,50,50,50,50,50,50,50,50;

! used in seasonal schedules
Schedule:Day:Hourly,  Off, Fraction,
   0,0,0,0,0,0,0,0,0,0,0,0,0,0,0,0,0,0,0,0,0,0,0,0;

Schedule:Week:Daily, Off,
   Off,Off,Off,Off,
   Off,Off,Off,Off,
   Off,Off,Off,Off;

! -------------------- Control type schedules (for heating & cooling) ----------------------

Schedule:Day:Hourly, Summer Control Type Day Sch, Control Type,
   4,4,4,4,4,4,4,4,4,4,4,4,4,4,4,4,4,4,4,4,4,4,4,4;

Schedule:Day:Hourly, Winter Control Type Day Sch, Control Type,
   4,4,4,4,4,4,4,4,4,4,4,4,4,4,4,4,4,4,4,4,4,4,4,4;

Schedule:Day:Hourly, Summer Control Type Day Sch - cool, Control Type,
   2,2,2,2,2,2,2,2,2,2,2,2,2,2,2,2,2,2,2,2,2,2,2,2;

Schedule:Day:Hourly, Winter Control Type Day Sch - heat, Control Type,
   1,1,1,1,1,1,1,1,1,1,1,1,1,1,1,1,1,1,1,1,1,1,1,1;

Schedule:Week:Daily, Summer Control Type Week Sch,
   Summer Control Type Day Sch,Summer Control Type Day Sch,Summer Control Type Day Sch,
   Summer Control Type Day Sch,Summer Control Type Day Sch,Summer Control Type Day Sch,
   Summer Control Type Day Sch,Summer Control Type Day Sch,Summer Control Type Day Sch,
   Summer Control Type Day Sch,Summer Control Type Day Sch,Summer Control Type Day Sch;

Schedule:Week:Daily, Winter Control Type Week Sch,
   Winter Control Type Day Sch,Winter Control Type Day Sch,Winter Control Type Day Sch,
   Winter Control Type Day Sch,Winter Control Type Day Sch,Winter Control Type Day Sch,
   Winter Control Type Day Sch,Winter Control Type Day Sch,Winter Control Type Day Sch,
   Winter Control Type Day Sch,Winter Control Type Day Sch,Winter Control Type Day Sch;

Schedule:Week:Daily, Summer Control Type Week Sch - cool,
   Summer Control Type Day Sch - cool,Summer Control Type Day Sch - cool,Summer Control Type Day Sch - cool,
   Summer Control Type Day Sch - cool,Summer Control Type Day Sch - cool,Summer Control Type Day Sch - cool,
   Summer Control Type Day Sch - cool,Summer Control Type Day Sch - cool,Summer Control Type Day Sch - cool,
   Summer Control Type Day Sch - cool,Summer Control Type Day Sch - cool,Summer Control Type Day Sch - cool;

Schedule:Week:Daily, Winter Control Type Week Sch - heat,
   Winter Control Type Day Sch - heat,Winter Control Type Day Sch - heat,Winter Control Type Day Sch - heat,
   Winter Control Type Day Sch - heat,Winter Control Type Day Sch - heat,Winter Control Type Day Sch - heat,
   Winter Control Type Day Sch - heat,Winter Control Type Day Sch - heat,Winter Control Type Day Sch - heat,
   Winter Control Type Day Sch - heat,Winter Control Type Day Sch - heat,Winter Control Type Day Sch - heat;

!Material:InfraredTransparent,
!IRTMaterial; !- Name

!Construction,
!IRTSurface,  !- Name
!IRTMaterial; !- Outside Layer





Material:NoMass, 
LinearBridgingLayer,                  ! Material Name
Rough,                                ! Roughness
0.6267 ,                              ! Resistance {M**2K/W} will give Total Resistance 1
0.0100000 ,                           ! Thermal Absorptance
0.0100000 ,                           ! Solar Absorptance
0.0100000 ;                           ! Visible Absorptance

Construction,
LinearBridgingConstruction,           !- Name
LinearBridgingLayer;                  !- Layer

Schedule:Compact,
TypOperativeTempControlSch,
Temperature,
Through: 31 Dec,
For: SummerDesignDay WinterDesignDay,
Until: 24:00, 0.0,
For: AllOtherDays,
Until: 24:00, 0.5;

Schedule:Compact, 
      OnWinterDesignDay,                          ! Name
      Any Number,                                 
      Through: 12/31,                             
      For: WinterDesignDay,                       ! All days in year
      Until: 24:00, 1,
      For: AllOtherDays,
      Until: 24:00, 0;     

Schedule:Compact, 
      OnSummerDesignDay,                          ! Name
      Any Number,                                 
      Through: 12/31,                             
      For: SummerDesignDay,                       ! All days in year
      Until: 24:00, 1,
      For: AllOtherDays,
      Until: 24:00, 0;     

Schedule:Compact, AirVelocitySchedule,
Any Number,
Through: 12/31,
For: AllDays,
Until: 24:00,
.137;
Material:InfraredTransparent,
IRTMaterial; !- Name

Construction,
IRTSurface,  !- Name
IRTMaterial; !- Outside Layer

Schedule:Compact, 
2, 
Any Number,
Through: 12/31,
For: AllDays,   
Until: 24:00,   1 ;

Schedule:Compact,
2864,
Fraction,
Through: 31 Dec,
For: Weekdays SummerDesignDay,
Until: 07:00, 0,
Until: 08:00, 0.25,
Until: 09:00, 0.5,
Until: 12:00, 1,
Until: 14:00, 0.75,
Until: 17:00, 1,
Until: 18:00, 0.5,
Until: 19:00, 0.25,
Until: 24:00, 0,
For: Weekends,
Until: 24:00, 0,
For: Holidays,
Until: 24:00, 0,
For: WinterDesignDay AllOtherDays,
Until: 24:00, 0;

Schedule:Compact,
2867,
Fraction,
Through: 31 Dec,
For: Weekdays SummerDesignDay,
Until: 07:00, 0.05394,
Until: 20:00, 1,
Until: 24:00, 0.05394,
For: Weekends,
Until: 24:00, 0.05394,
For: Holidays,
Until: 24:00, 0.05394,
For: WinterDesignDay AllOtherDays,
Until: 24:00, 0;

Schedule:Compact,
2868,
Fraction,
Through: 31 Dec,
For: Weekdays SummerDesignDay,
Until: 07:00, 0,
Until: 19:00, 1,
Until: 24:00, 0,
For: Weekends,
Until: 24:00, 0,
For: Holidays,
Until: 24:00, 0,
For: WinterDesignDay AllOtherDays,
Until: 24:00, 0;



Material, 1_1_37,
Rough,
.1327,
0.04,
10,
1400,
0.9,
0.6,
0.6;

Material, 1_2_9,
Rough,
.1,
1.13,
2000,
1000,
0.9,
0.6,
0.6;

Material, 1_3_29,
Rough,
.07,
0.41,
1200,
840,
0.9,
0.73,
0.73;

Material, 1_4_34,
Rough,
.03,
0.14,
650,
1200,
0.9,
0.78,
0.78;

Material, 3_1_7,
Rough,
.1,
1.4,
2100,
840,
0.9,
0.6,
0.6;

Material, 5_1_27,
Rough,
.025,
0.25,
900,
1000,
0.9,
0.5,
0.5;

Material, 7_1_5,
Rough,
.1,
0.84,
1700,
800,
0.9,
0.7,
0.7;

Material, 7_2_103,
Rough,
.0689,
0.034,
35,
1400,
0.9,
0.6,
0.6;

Material, 7_3_11,
Rough,
.047,
0.51,
1400,
1000,
0.9,
0.6,
0.6;

Material, 7_4_66,
Rough,
.013,
0.4,
1000,
1000,
0.9,
0.5,
0.5;

Material, 9_1_4,
Rough,
.01,
0.7,
2100,
1000,
0.9,
0.85,
0.9;

Material, 9_2_20,
Rough,
.0871,
0.04,
12,
840,
0.9,
0.6,
0.6;

Material, 9_4_113,
Rough,
.013,
0.25,
2800,
896,
0.9,
0.5,
0.5;


Construction, 1,
1_1_37,
1_2_9,
1_3_29,
1_4_34;

Construction, 2,
1_4_34,
1_3_29,
1_2_9,
1_1_37;

Construction, 3,
3_1_7;

Construction, 4,
3_1_7;
Material:NoMass, 5_RVAL_2,
Rough,
.15,
0.9,
0.7,
0.7;

Construction, 5,
5_1_27,
5_RVAL_2,
5_1_27;
Material:NoMass, 6_RVAL_2,
Rough,
.15,
0.9,
0.7,
0.7;

Construction, 6,
5_1_27,
6_RVAL_2,
5_1_27;

Construction, 7,
7_1_5,
7_2_103,
7_3_11,
7_4_66;

Construction, 8,
7_4_66,
7_3_11,
7_2_103,
7_1_5;
Material:NoMass, 9_RVAL_3,
Rough,
.18,
0.9,
0.7,
0.7;

Construction, 9,
9_1_4,
9_2_20,
9_RVAL_3,
9_4_113;
Material:NoMass, 10_RVAL_2,
Rough,
.18,
0.9,
0.7,
0.7;

Construction, 10,
9_4_113,
10_RVAL_2,
9_2_20,
9_1_4;


WindowMaterial:SimpleGlazingSystem,
Simple 1001,
2.4,
.4,
.744;

Construction,1001,
Simple 1001;

HeatBalanceAlgorithm, 
ConductionTransferFunction,
2000,
0.00000001,
1000;

ShadowCalculation, AverageOverDaysInFrequency, 20,  15000, SutherlandHodgman, SimpleSkyDiffuseModeling;

SurfaceConvectionAlgorithm:Inside,TARP;
SurfaceConvectionAlgorithm:Outside,DOE-2;
ZoneCapacitanceMultiplier:ResearchSpecial, All, , 1, 1.0, 1.0, 1.0;

Building, Building,
0,
Suburbs,
 .04,
 .4,
FullExterior,
25,
6;

GlobalGeometryRules, LowerLeftCorner, CounterClockWise, Relative;
Zone, 1265,
0,
0,
0,
0,
1 ,
1,
,
 76.1315,
 25.3772,
TARP,
,
Yes;


PEOPLE, People 1265,
1265,
2864,
People/Area,
,
 .4,
,
 .3,
AutoCalculate,
Activity Schedule 1265,
.0000000382,
No,
ZoneAveraged,
,
Work efficiency,
ClothingInsulationSchedule,
,
Clothing Schedule 1265,
AirVelocitySchedule;

Schedule:Compact, Activity Schedule 1265,
Any Number,
Through: 12/31,
For: AllDays,
Until: 24:00,  110.7;

Schedule:Compact, Clothing Schedule 1265,
Any Number,
Through: 4/1,
For: AllDays,
Until: 24:00,  1,
Through: 9/30,
For: AllDays,
Until: 24:00,  .5,
Through: 12/31,
For: AllDays,
Until: 24:00,  1;

Lights, 1265 ,
1265,
2868,
Watts/Area,
,
9,
,
0,
.42,
.18,
1,
;

OtherEquipment, 1265 Equipment gain 1,
Electricity,
1265,
2867,
Watts/Area,
,
15,
,
0,
.2,
0,
0,
ELECTRIC EQUIPMENT#1265#05;

WaterUse:Equipment,
DHW 1265,
DHW 1265,
 1.56649382716049E-07,
2864,
DHW Supply Temperature 1265,
DHW Supply Temperature 1265,
DHW Mains Temperature 1265,
1265,
,
;

Schedule:Compact, DHW Supply Temperature 1265,
Temperature,
Through: 12/31,
For: AllDays,
Until: 24:00, 65;

Schedule:Compact, DHW Mains Temperature 1265,
Temperature,
Through: 12/31,
For: AllDays,
Until: 24:00, 10;

ZoneInfiltration:DesignFlowRate, 1265 Infiltration,
1265,
2,
Flow/zone,
.014803,
,
,
,
1,
0,
0,
0;


BuildingSurface:Detailed, 
1265_GroundFloor_0_0_0,
Floor, 1,
1265,
Ground, , 
NoSun, 
NoWind, 
AutoCalculate, 
4, 
-60.3956992478, 5.175, 0,
-64.8456992478, 5.175, 0,
-64.8456992478, 11.475, 0,
-60.3956992478, 11.475, 0;

BuildingSurface:Detailed, 
1265_Ceiling_1_0_0,
Ceiling, 3,
1265,
Surface, 1787_Floor_0_0_10000, 
NoSun, 
NoWind, 
0, 
4, 
-64.84569925, 5.175, 3,
-60.39569925, 5.175, 3,
-60.39569925, 11.475, 3,
-64.84569925, 11.475, 3;

BuildingSurface:Detailed, 
1787_Floor_0_0_10000,
Floor, 4,
1787,
Surface, 1265_Ceiling_1_0_0, 
NoSun, 
NoWind, 
0, 
4, 
-60.39569925, 5.175, 3,
-64.84569925, 5.175, 3,
-64.84569925, 11.475, 3,
-60.39569925, 11.475, 3;

BuildingSurface:Detailed, 
1265_Partition_2_0_0,
Wall, 5,
1265,
Surface, 1272_Partition_4_0_10001, 
NoSun, 
NoWind, 
0, 
4, 
-60.3956992478, 5.175, 0,
-60.3956992478, 11.475, 0,
-60.3956992478, 11.475, 3,
-60.3956992478, 5.175, 3;

BuildingSurface:Detailed, 
1272_Partition_4_0_10001,
Wall, 6,
1272,
Surface, 1265_Partition_2_0_0, 
NoSun, 
NoWind, 
0, 
4, 
-60.3956992478, 11.475, 0,
-60.3956992478, 5.175, 0,
-60.3956992478, 5.175, 3,
-60.3956992478, 11.475, 3;

BuildingSurface:Detailed, 
1265_Wall_3_0_0,
Wall, 7,
1265,
Outdoors, , 
SunExposed, 
WindExposed, 
AutoCalculate, 
4, 
-60.3956992478, 11.475, 0,
-64.8456992478, 11.475, 0,
-64.8456992478, 11.475, 3,
-60.3956992478, 11.475, 3;

FenestrationSurface:Detailed, 1265_Wall_3_0_0_0_0_0_Win,
Window, 
1001,
1265_Wall_3_0_0,
,
AutoCalculate, 
, 
1, 
1, 
4, 
-61.385699248, 11.475, .84,
-63.855699242, 11.475, .84,
-63.855699242, 11.475, 2.26,
-61.385699248, 11.475, 2.26;

BuildingSurface:Detailed, 
1265_Partition_4_0_0,
Wall, 5,
1265,
Surface, 1307_Partition_2_0_10002, 
NoSun, 
NoWind, 
0, 
4, 
-64.8456992478, 11.475, 0,
-64.8456992478, 5.175, 0,
-64.8456992478, 5.175, 3,
-64.8456992478, 11.475, 3;

BuildingSurface:Detailed, 
1307_Partition_2_0_10002,
Wall, 6,
1307,
Surface, 1265_Partition_4_0_0, 
NoSun, 
NoWind, 
0, 
4, 
-64.8456992478, 5.175, 0,
-64.8456992478, 11.475, 0,
-64.8456992478, 11.475, 3,
-64.8456992478, 5.175, 3;

BuildingSurface:Detailed, 
1265_Partition_5_0_0,
Wall, 5,
1265,
Surface, 1272_Partition_5_0_10003, 
NoSun, 
NoWind, 
0, 
4, 
-64.84569925, 5.175, 0,
-60.39569925, 5.175, 0,
-60.39569925, 5.175, 3,
-64.84569925, 5.175, 3;

BuildingSurface:Detailed, 
1272_Partition_5_0_10003,
Wall, 6,
1272,
Surface, 1265_Partition_5_0_0, 
NoSun, 
NoWind, 
0, 
4, 
-60.39569925, 5.175, 0,
-64.84569925, 5.175, 0,
-64.84569925, 5.175, 3,
-60.39569925, 5.175, 3;

Zone, 1272,
0,
0,
0,
0,
1 ,
1,
,
 665.8739,
 221.958,
TARP,
,
Yes;


PEOPLE, People 1272,
1272,
2864,
People/Area,
,
 .02,
,
 .3,
AutoCalculate,
Activity Schedule 1272,
.0000000382,
No,
ZoneAveraged,
,
Work efficiency,
ClothingInsulationSchedule,
,
Clothing Schedule 1272,
AirVelocitySchedule;

Schedule:Compact, Activity Schedule 1272,
Any Number,
Through: 12/31,
For: AllDays,
Until: 24:00,  110.7;

Schedule:Compact, Clothing Schedule 1272,
Any Number,
Through: 4/1,
For: AllDays,
Until: 24:00,  1,
Through: 9/30,
For: AllDays,
Until: 24:00,  .5,
Through: 12/31,
For: AllDays,
Until: 24:00,  1;

Lights, 1272 ,
1272,
2868,
Watts/Area,
,
4.5,
,
0,
.42,
.18,
1,
;

OtherEquipment, 1272 Equipment gain 1,
Electricity,
1272,
2867,
Watts/Area,
,
5,
,
0,
.2,
0,
0,
ELECTRIC EQUIPMENT#1272#05;

WaterUse:Equipment,
DHW 1272,
DHW 1272,
 1.37011111111111E-06,
2864,
DHW Supply Temperature 1272,
DHW Supply Temperature 1272,
DHW Mains Temperature 1272,
1272,
,
;

Schedule:Compact, DHW Supply Temperature 1272,
Temperature,
Through: 12/31,
For: AllDays,
Until: 24:00, 65;

Schedule:Compact, DHW Mains Temperature 1272,
Temperature,
Through: 12/31,
For: AllDays,
Until: 24:00, 10;

ZoneInfiltration:DesignFlowRate, 1272 Infiltration,
1272,
2,
Flow/zone,
.129475,
,
,
,
1,
0,
0,
0;


BuildingSurface:Detailed, 
1272_GroundFloor_0_0_0,
Floor, 1,
1272,
Ground, , 
NoSun, 
NoWind, 
AutoCalculate, 
4, 
-60.3956992478, 3.275, 0,
-71.6456992478, 3.27500137, 0,
-71.6456992478, 5.175, 0,
-60.3956992478, 5.175, 0;

BuildingSurface:Detailed, 
1272_GroundFloor_0_0_1,
Floor, 1,
1272,
Ground, , 
NoSun, 
NoWind, 
AutoCalculate, 
4, 
-47.4956992478,-4.825, 0,
-60.3956992478,-4.825, 0,
-60.3956992478, 11.475, 0,
-47.4956992478, 11.475, 0;

BuildingSurface:Detailed, 
1272_Ceiling_1_0_0,
Ceiling, 3,
1272,
Surface, 1694_Floor_0_0_10004, 
NoSun, 
NoWind, 
0, 
4, 
-71.64569925, 3.27500183, 3,
-60.39569925, 3.27500183, 3,
-60.39569925, 5.175, 3,
-71.64569925, 5.175, 3;

BuildingSurface:Detailed, 
1694_Floor_0_0_10004,
Floor, 4,
1694,
Surface, 1272_Ceiling_1_0_0, 
NoSun, 
NoWind, 
0, 
4, 
-60.39569925, 3.27500183, 3,
-71.64569925, 3.27500183, 3,
-71.64569925, 5.175, 3,
-60.39569925, 5.175, 3;

BuildingSurface:Detailed, 
1272_Ceiling_1_0_1,
Ceiling, 3,
1272,
Surface, 1694_Floor_0_0_10005, 
NoSun, 
NoWind, 
0, 
4, 
-60.39569925,-4.825, 3,
-47.49569925,-4.825, 3,
-47.49569925, 11.475, 3,
-60.39569925, 11.475, 3;

BuildingSurface:Detailed, 
1694_Floor_0_0_10005,
Floor, 4,
1694,
Surface, 1272_Ceiling_1_0_1, 
NoSun, 
NoWind, 
0, 
4, 
-47.49569925,-4.825, 3,
-60.39569925,-4.825, 3,
-60.39569925, 11.475, 3,
-47.49569925, 11.475, 3;

BuildingSurface:Detailed, 
1272_Partition_2_0_0,
Wall, 5,
1272,
Surface, 1285_Partition_4_0_10006, 
NoSun, 
NoWind, 
0, 
4, 
-47.4956992478, 1.475, 0,
-47.4956992478, 11.475, 0,
-47.4956992478, 11.475, 3,
-47.4956992478, 1.475, 3;

BuildingSurface:Detailed, 
1285_Partition_4_0_10006,
Wall, 6,
1285,
Surface, 1272_Partition_2_0_0, 
NoSun, 
NoWind, 
0, 
4, 
-47.4956992478, 11.475, 0,
-47.4956992478, 1.475, 0,
-47.4956992478, 1.475, 3,
-47.4956992478, 11.475, 3;

BuildingSurface:Detailed, 
1272_Wall_3_0_0,
Wall, 7,
1272,
Outdoors, , 
SunExposed, 
WindExposed, 
AutoCalculate, 
4, 
-47.4956992478, 11.475, 0,
-60.3956992478, 11.475, 0,
-60.3956992478, 11.475, 3,
-47.4956992478, 11.475, 3;

FenestrationSurface:Detailed, 1272_Wall_3_0_0_0_0_1_Win,
Window, 
1001,
1272_Wall_3_0_0,
,
AutoCalculate, 
, 
1, 
2, 
4, 
-55.253199244, 11.475, .84,
-58.983199241, 11.475, .84,
-58.983199241, 11.475, 2.26,
-55.253199244, 11.475, 2.26;

BuildingSurface:Detailed, 
1272_Partition_6_0_0,
Wall, 5,
1272,
Surface, 1307_Partition_5_0_10007, 
NoSun, 
NoWind, 
0, 
4, 
-64.84569925, 5.175, 0,
-71.64569925, 5.175, 0,
-71.64569925, 5.175, 3,
-64.84569925, 5.175, 3;

BuildingSurface:Detailed, 
1307_Partition_5_0_10007,
Wall, 6,
1307,
Surface, 1272_Partition_6_0_0, 
NoSun, 
NoWind, 
0, 
4, 
-71.64569925, 5.175, 0,
-64.84569925, 5.175, 0,
-64.84569925, 5.175, 3,
-71.64569925, 5.175, 3;

BuildingSurface:Detailed, 
1272_Partition_7_0_0,
Wall, 5,
1272,
Surface, 1299_Partition_6_0_10008, 
NoSun, 
NoWind, 
0, 
4, 
-71.6456992478, 5.175, 0,
-71.6456992478, 3.27500137, 0,
-71.6456992478, 3.27500137, 3,
-71.6456992478, 5.175, 3;

BuildingSurface:Detailed, 
1299_Partition_6_0_10008,
Wall, 6,
1299,
Surface, 1272_Partition_7_0_0, 
NoSun, 
NoWind, 
0, 
4, 
-71.6456992478, 3.27500137, 0,
-71.6456992478, 5.175, 0,
-71.6456992478, 5.175, 3,
-71.6456992478, 3.27500137, 3;

BuildingSurface:Detailed, 
1272_Partition_8_0_0,
Wall, 6,
1272,
Surface, 1314_Partition_3_0_10009, 
NoSun, 
NoWind, 
0, 
4, 
-71.6456992514, 3.2750013694, 0,
-60.3956992514, 3.275, 0,
-60.3956992514, 3.275, 3,
-71.6456992514, 3.2750013694, 3;

BuildingSurface:Detailed, 
1314_Partition_3_0_10009,
Wall, 5,
1314,
Surface, 1272_Partition_8_0_0, 
NoSun, 
NoWind, 
0, 
4, 
-60.3956992514, 3.275, 0,
-71.6456992514, 3.2750013694, 0,
-71.6456992514, 3.2750013694, 3,
-60.3956992514, 3.275, 3;

BuildingSurface:Detailed, 
1272_Partition_9_0_0,
Wall, 6,
1272,
Surface, 1314_Partition_2_0_10010, 
NoSun, 
NoWind, 
0, 
4, 
-60.3956992478, 3.275, 0,
-60.3956992478,-4.825, 0,
-60.3956992478,-4.825, 3,
-60.3956992478, 3.275, 3;

BuildingSurface:Detailed, 
1314_Partition_2_0_10010,
Wall, 5,
1314,
Surface, 1272_Partition_9_0_0, 
NoSun, 
NoWind, 
0, 
4, 
-60.3956992478,-4.825, 0,
-60.3956992478, 3.275, 0,
-60.3956992478, 3.275, 3,
-60.3956992478,-4.825, 3;

BuildingSurface:Detailed, 
1272_Partition_10_0_0,
Wall, 5,
1272,
Surface, 1334_Partition_4_0_10011, 
NoSun, 
NoWind, 
0, 
4, 
-60.39569925,-4.825, 0,
-47.49569925,-4.825, 0,
-47.49569925,-4.825, 3,
-60.39569925,-4.825, 3;

BuildingSurface:Detailed, 
1334_Partition_4_0_10011,
Wall, 6,
1334,
Surface, 1272_Partition_10_0_0, 
NoSun, 
NoWind, 
0, 
4, 
-47.49569925,-4.825, 0,
-60.39569925,-4.825, 0,
-60.39569925,-4.825, 3,
-47.49569925,-4.825, 3;

BuildingSurface:Detailed, 
1272_Partition_11_0_0,
Wall, 6,
1272,
Surface, 1324_Partition_5_0_10012, 
NoSun, 
NoWind, 
0, 
4, 
-47.4956992478,-4.825, 0,
-47.4956992478, 1.475, 0,
-47.4956992478, 1.475, 3,
-47.4956992478,-4.825, 3;

BuildingSurface:Detailed, 
1324_Partition_5_0_10012,
Wall, 5,
1324,
Surface, 1272_Partition_11_0_0, 
NoSun, 
NoWind, 
0, 
4, 
-47.4956992478, 1.475, 0,
-47.4956992478,-4.825, 0,
-47.4956992478,-4.825, 3,
-47.4956992478, 1.475, 3;

Zone, 1285,
0,
0,
0,
0,
1 ,
1,
,
 226.3037,
 75.4346,
TARP,
,
Yes;


PEOPLE, People 1285,
1285,
2864,
People/Area,
,
 .02,
,
 .3,
AutoCalculate,
Activity Schedule 1285,
.0000000382,
No,
ZoneAveraged,
,
Work efficiency,
ClothingInsulationSchedule,
,
Clothing Schedule 1285,
AirVelocitySchedule;

Schedule:Compact, Activity Schedule 1285,
Any Number,
Through: 12/31,
For: AllDays,
Until: 24:00,  110.7;

Schedule:Compact, Clothing Schedule 1285,
Any Number,
Through: 4/1,
For: AllDays,
Until: 24:00,  1,
Through: 9/30,
For: AllDays,
Until: 24:00,  .5,
Through: 12/31,
For: AllDays,
Until: 24:00,  1;

Lights, 1285 ,
1285,
2868,
Watts/Area,
,
4.5,
,
0,
.42,
.18,
1,
;

OtherEquipment, 1285 Equipment gain 1,
Electricity,
1285,
2867,
Watts/Area,
,
5,
,
0,
.2,
0,
0,
ELECTRIC EQUIPMENT#1285#05;

WaterUse:Equipment,
DHW 1285,
DHW 1285,
 4.65645679012346E-07,
2864,
DHW Supply Temperature 1285,
DHW Supply Temperature 1285,
DHW Mains Temperature 1285,
1285,
,
;

Schedule:Compact, DHW Supply Temperature 1285,
Temperature,
Through: 12/31,
For: AllDays,
Until: 24:00, 65;

Schedule:Compact, DHW Mains Temperature 1285,
Temperature,
Through: 12/31,
For: AllDays,
Until: 24:00, 10;

ZoneInfiltration:DesignFlowRate, 1285 Infiltration,
1285,
2,
Flow/zone,
.044003,
,
,
,
1,
0,
0,
0;


BuildingSurface:Detailed, 
1285_GroundFloor_0_0_0,
Floor, 1,
1285,
Ground, , 
NoSun, 
NoWind, 
AutoCalculate, 
4, 
-39.4956992478, 1.475, 0,
-47.4956992478, 1.475, 0,
-47.4956992478, 11.475, 0,
-39.4956992478, 11.475, 0;

BuildingSurface:Detailed, 
1285_Ceiling_1_0_0,
Ceiling, 3,
1285,
Surface, 1694_Floor_0_0_10013, 
NoSun, 
NoWind, 
0, 
4, 
-45.99569925, 1.475, 3,
-39.49569925, 1.475, 3,
-39.49569925, 3.025, 3,
-45.99569925, 3.025, 3;

BuildingSurface:Detailed, 
1694_Floor_0_0_10013,
Floor, 4,
1694,
Surface, 1285_Ceiling_1_0_0, 
NoSun, 
NoWind, 
0, 
4, 
-39.49569925, 1.475, 3,
-45.99569925, 1.475, 3,
-45.99569925, 3.025, 3,
-39.49569925, 3.025, 3;

BuildingSurface:Detailed, 
1285_Ceiling_1_0_1,
Ceiling, 3,
1285,
Surface, 1694_Floor_0_0_10014, 
NoSun, 
NoWind, 
0, 
4, 
-47.49569925, 1.475, 3,
-45.99569925, 1.475, 3,
-45.99569925, 11.475, 3,
-47.49569925, 11.475, 3;

BuildingSurface:Detailed, 
1694_Floor_0_0_10014,
Floor, 4,
1694,
Surface, 1285_Ceiling_1_0_1, 
NoSun, 
NoWind, 
0, 
4, 
-45.99569925, 1.475, 3,
-47.49569925, 1.475, 3,
-47.49569925, 11.475, 3,
-45.99569925, 11.475, 3;

BuildingSurface:Detailed, 
1285_Ceiling_1_1_0,
Ceiling, 3,
1285,
Surface, 1794_Floor_0_0_10015, 
NoSun, 
NoWind, 
0, 
4, 
-45.99569925, 3.025, 3,
-39.49569925, 3.025, 3,
-39.49569925, 11.475, 3,
-45.99569925, 11.475, 3;

BuildingSurface:Detailed, 
1794_Floor_0_0_10015,
Floor, 4,
1794,
Surface, 1285_Ceiling_1_1_0, 
NoSun, 
NoWind, 
0, 
4, 
-39.49569925, 3.025, 3,
-45.99569925, 3.025, 3,
-45.99569925, 11.475, 3,
-39.49569925, 11.475, 3;
FenestrationSurface:Detailed, 1285_Ceiling_1_1_0_0_0_0_Hole,
Door, IRTSurface,
1285_Ceiling_1_1_0,
1794_Floor_0_0_0_0_0_0_Hole_10017,
AutoCalculate, 
, 
, 
1, 
4, 
-45.89569924, 3.125, 3,
-39.59569925, 3.125, 3,
-39.59569925, 11.1825, 3,
-45.89569924, 11.1825, 3;

SurfaceProperty:ConvectionCoefficients, 1285_Ceiling_1_1_0_0_0_0_Hole,
Outside,
Value,
.1, 
,
,
Inside,
Value,
.1, 
,
;
FenestrationSurface:Detailed, 1794_Floor_0_0_0_0_0_0_Hole_10017,
Door, IRTSurface,
1794_Floor_0_0_10015,
1285_Ceiling_1_1_0_0_0_0_Hole,
AutoCalculate, 
, 
, 
1, 
4, 
-39.59569925, 3.125, 3,
-45.89569924, 3.125, 3,
-45.89569924, 11.1825, 3,
-39.59569925, 11.1825, 3;

BuildingSurface:Detailed, 
1285_Partition_2_0_0,
Wall, 5,
1285,
Surface, 1292_Partition_4_0_10017, 
NoSun, 
NoWind, 
0, 
4, 
-39.4956992478, 1.475, 0,
-39.4956992478, 11.475, 0,
-39.4956992478, 11.475, 3,
-39.4956992478, 1.475, 3;

BuildingSurface:Detailed, 
1292_Partition_4_0_10017,
Wall, 6,
1292,
Surface, 1285_Partition_2_0_0, 
NoSun, 
NoWind, 
0, 
4, 
-39.4956992478, 11.475, 0,
-39.4956992478, 1.475, 0,
-39.4956992478, 1.475, 3,
-39.4956992478, 11.475, 3;

BuildingSurface:Detailed, 
1285_Wall_3_0_0,
Wall, 7,
1285,
Outdoors, , 
SunExposed, 
WindExposed, 
AutoCalculate, 
4, 
-39.4956992478, 11.475, 0,
-47.4956992478, 11.475, 0,
-47.4956992478, 11.475, 3,
-39.4956992478, 11.475, 3;

FenestrationSurface:Detailed, 1285_Wall_3_0_0_0_0_0_Win,
Window, 
1001,
1285_Wall_3_0_0,
,
AutoCalculate, 
, 
1, 
1, 
4, 
-41.195699248, 11.475, .84,
-45.795699242, 11.475, .84,
-45.795699242, 11.475, 2.26,
-41.195699248, 11.475, 2.26;

BuildingSurface:Detailed, 
1285_Partition_5_0_0,
Wall, 6,
1285,
Surface, 1324_Partition_4_0_10018, 
NoSun, 
NoWind, 
0, 
4, 
-47.49569925, 1.475, 0,
-39.49569925, 1.475, 0,
-39.49569925, 1.475, 3,
-47.49569925, 1.475, 3;

BuildingSurface:Detailed, 
1324_Partition_4_0_10018,
Wall, 5,
1324,
Surface, 1285_Partition_5_0_0, 
NoSun, 
NoWind, 
0, 
4, 
-39.49569925, 1.475, 0,
-47.49569925, 1.475, 0,
-47.49569925, 1.475, 3,
-39.49569925, 1.475, 3;

Zone, 1292,
0,
0,
0,
0,
1 ,
1,
,
 222.5639,
 74.188,
TARP,
,
Yes;


PEOPLE, People 1292,
1292,
2864,
People/Area,
,
 .02,
,
 .3,
AutoCalculate,
Activity Schedule 1292,
.0000000382,
No,
ZoneAveraged,
,
Work efficiency,
ClothingInsulationSchedule,
,
Clothing Schedule 1292,
AirVelocitySchedule;

Schedule:Compact, Activity Schedule 1292,
Any Number,
Through: 12/31,
For: AllDays,
Until: 24:00,  110.7;

Schedule:Compact, Clothing Schedule 1292,
Any Number,
Through: 4/1,
For: AllDays,
Until: 24:00,  1,
Through: 9/30,
For: AllDays,
Until: 24:00,  .5,
Through: 12/31,
For: AllDays,
Until: 24:00,  1;

Lights, 1292 ,
1292,
2868,
Watts/Area,
,
6,
,
0,
.42,
.18,
1,
;

OtherEquipment, 1292 Equipment gain 1,
Electricity,
1292,
2867,
Watts/Area,
,
20,
,
0,
.2,
0,
0,
ELECTRIC EQUIPMENT#1292#05;

WaterUse:Equipment,
DHW 1292,
DHW 1292,
 4.57950617283951E-07,
2864,
DHW Supply Temperature 1292,
DHW Supply Temperature 1292,
DHW Mains Temperature 1292,
1292,
,
;

Schedule:Compact, DHW Supply Temperature 1292,
Temperature,
Through: 12/31,
For: AllDays,
Until: 24:00, 65;

Schedule:Compact, DHW Mains Temperature 1292,
Temperature,
Through: 12/31,
For: AllDays,
Until: 24:00, 10;

ZoneInfiltration:DesignFlowRate, 1292 Infiltration,
1292,
2,
Flow/zone,
.043276,
,
,
,
1,
0,
0,
0;


BuildingSurface:Detailed, 
1292_GroundFloor_0_0_0,
Floor, 1,
1292,
Ground, , 
NoSun, 
NoWind, 
AutoCalculate, 
4, 
-31.4956992478, 1.475, 0,
-39.4956992478, 1.475, 0,
-39.4956992478, 11.475, 0,
-31.4956992478, 11.475, 0;

BuildingSurface:Detailed, 
1292_Ceiling_1_0_0,
Ceiling, 3,
1292,
Surface, 1694_Floor_0_0_10019, 
NoSun, 
NoWind, 
0, 
4, 
-39.49569925, 1.475, 3,
-35.34569925, 1.475, 3,
-35.34569925, 3.025, 3,
-39.49569925, 3.025, 3;

BuildingSurface:Detailed, 
1694_Floor_0_0_10019,
Floor, 4,
1694,
Surface, 1292_Ceiling_1_0_0, 
NoSun, 
NoWind, 
0, 
4, 
-35.34569925, 1.475, 3,
-39.49569925, 1.475, 3,
-39.49569925, 3.025, 3,
-35.34569925, 3.025, 3;

BuildingSurface:Detailed, 
1292_Ceiling_1_1_0,
Ceiling, 3,
1292,
Surface, 1723_Floor_0_0_10020, 
NoSun, 
NoWind, 
0, 
4, 
-35.34569925, 1.475, 3,
-31.49569925, 1.475, 3,
-31.49569925, 3.025, 3,
-35.34569925, 3.025, 3;

BuildingSurface:Detailed, 
1723_Floor_0_0_10020,
Floor, 4,
1723,
Surface, 1292_Ceiling_1_1_0, 
NoSun, 
NoWind, 
0, 
4, 
-31.49569925, 1.475, 3,
-35.34569925, 1.475, 3,
-35.34569925, 3.025, 3,
-31.49569925, 3.025, 3;

BuildingSurface:Detailed, 
1292_Ceiling_1_2_0,
Ceiling, 3,
1292,
Surface, 1794_Floor_0_0_10021, 
NoSun, 
NoWind, 
0, 
4, 
-39.49569925, 3.025, 3,
-39.24569925, 3.025, 3,
-39.24569925, 11.475, 3,
-39.49569925, 11.475, 3;

BuildingSurface:Detailed, 
1794_Floor_0_0_10021,
Floor, 4,
1794,
Surface, 1292_Ceiling_1_2_0, 
NoSun, 
NoWind, 
0, 
4, 
-39.24569925, 3.025, 3,
-39.49569925, 3.025, 3,
-39.49569925, 11.475, 3,
-39.24569925, 11.475, 3;

BuildingSurface:Detailed, 
1292_Ceiling_1_3_0,
Ceiling, 3,
1292,
Surface, 1801_Floor_0_0_10022, 
NoSun, 
NoWind, 
0, 
4, 
-39.24569925, 3.025, 3,
-31.49569925, 3.025, 3,
-31.49569925, 11.475, 3,
-39.24569925, 11.475, 3;

BuildingSurface:Detailed, 
1801_Floor_0_0_10022,
Floor, 4,
1801,
Surface, 1292_Ceiling_1_3_0, 
NoSun, 
NoWind, 
0, 