! File generated by DesignBuilder - 6.1.0.006 2024/1/9 - 18:04:16
! Source file: E:\works\2022_research\_MOOSAS\6.0\MO2IDF\model.dsb

  Version,22.2;

  RunPeriod,
    test_1 (O1-O1:31-12),    !- Name
    1,                       !- Begin Month
    1,                       !- Begin Day of Month
    ,                        !- Begin Year
    12,                      !- End Month
    31,                      !- End Day of Month
    ,                        !- End Year
    ,                        !- Day of Week for Start Day
    No,                      !- Use Weather File Holidays and Special Days
    Yes,                     !- Use Weather File Daylight Saving Period
    Yes,                     !- Apply Weekend Holiday Rule
    Yes,                     !- Use Weather File Rain Indicators
    Yes,                     !- Use Weather File Snow Indicators
    ;                        !- Treat Weather as Actual

! Hourly weather file: C:\ProgramData\DesignBuilder\Weather Data\CHN_BEIJING_BEIJING_CSWD.epw

  Site:Location,
    test_1 (O1-O1:31-12)  (01-01:31-12),  !- Name
    39.93,                   !- Latitude {deg}
    116.28,                  !- Longitude {deg}
    8,                       !- Time Zone {hr}
    55;                      !- Elevation {m}

  Site:GroundTemperature:BuildingSurface,18,18,18,18,18,18,18,18,18,18,18,18;

  Site:GroundTemperature:Deep,14,14,14,14,14,14,14,14,14,14,14,14;

  Site:GroundTemperature:Shallow,14,14,14,14,14,14,14,14,14,14,14,14;

  Site:GroundTemperature:FCfactorMethod,0.14,-1.08,1.09,4.49,13.37,20.22,24.85,26.25,23.86,18.53,11.42,4.82;

  Site:GroundReflectance,0.2,0.2,0.2,0.2,0.2,0.2,0.2,0.2,0.2,0.2,0.2,0.2;

  Site:GroundReflectance:SnowModifier,
    2.0,                     !- Ground Reflected Solar Modifier
    2.0;                     !- Daylighting Ground Reflected Solar Modifier

  SimulationControl,
    Yes,                     !- Do Zone Sizing Calculation
    Yes,                     !- Do System Sizing Calculation
    No,                      !- Do Plant Sizing Calculation
    No,                      !- Run Simulation for Sizing Periods
    Yes,                     !- Run Simulation for Weather File Run Periods
    No,                      !- Do HVAC Sizing Simulation for Sizing Periods
    1;                       !- Maximum Number of HVAC Sizing Simulation Passes

  SizingPeriod:DesignDay,
    Summer Design Day in test_1 (O1-O1:31-12) Jul,  !- Name
    7,                       !- Month
    15,                      !- Day of Month
    SummerDesignDay,         !- Day Type
    37.7,                    !- Maximum Dry-Bulb Temperature {C}
    11.9,                    !- Daily Dry-Bulb Temperature Range {deltaC}
    ,                        !- Dry-Bulb Temperature Range Modifier Type
    ,                        !- Dry-Bulb Temperature Range Modifier Day Schedule Name
    WetBulb,                 !- Humidity Condition Type
    22.9,                    !- Wetbulb or DewPoint at Maximum Dry-Bulb {C}
    ,                        !- Humidity Condition Day Schedule Name
    ,                        !- Humidity Ratio at Maximum Dry-Bulb {kgWater/kgDryAir}
    ,                        !- Enthalpy at Maximum Dry-Bulb {J/kg}
    ,                        !- Daily Wet-Bulb Temperature Range {deltaC}
    100666,                  !- Barometric Pressure {Pa}
    0,                       !- Wind Speed {m/s}
    0,                       !- Wind Direction {deg}
    No,                      !- Rain Indicator
    No,                      !- Snow Indicator
    No,                      !- Daylight Saving Time Indicator
    ASHRAEClearSky,          !- Solar Model Indicator
    ,                        !- Beam Solar Day Schedule Name
    ,                        !- Diffuse Solar Day Schedule Name
    ,                        !- ASHRAE Clear Sky Optical Depth for Beam Irradiance (taub) {dimensionless}
    ,                        !- ASHRAE Clear Sky Optical Depth for Diffuse Irradiance (taud) {dimensionless}
    0.98;                    !- Sky Clearness

  SizingPeriod:DesignDay,
    Summer Design Day in test_1 (O1-O1:31-12) Aug,  !- Name
    8,                       !- Month
    15,                      !- Day of Month
    SummerDesignDay,         !- Day Type
    35,                      !- Maximum Dry-Bulb Temperature {C}
    11.2,                    !- Daily Dry-Bulb Temperature Range {deltaC}
    ,                        !- Dry-Bulb Temperature Range Modifier Type
    ,                        !- Dry-Bulb Temperature Range Modifier Day Schedule Name
    WetBulb,                 !- Humidity Condition Type
    23.7,                    !- Wetbulb or DewPoint at Maximum Dry-Bulb {C}
    ,                        !- Humidity Condition Day Schedule Name
    ,                        !- Humidity Ratio at Maximum Dry-Bulb {kgWater/kgDryAir}
    ,                        !- Enthalpy at Maximum Dry-Bulb {J/kg}
    ,                        !- Daily Wet-Bulb Temperature Range {deltaC}
    100666,                  !- Barometric Pressure {Pa}
    0,                       !- Wind Speed {m/s}
    0,                       !- Wind Direction {deg}
    No,                      !- Rain Indicator
    No,                      !- Snow Indicator
    No,                      !- Daylight Saving Time Indicator
    ASHRAEClearSky,          !- Solar Model Indicator
    ,                        !- Beam Solar Day Schedule Name
    ,                        !- Diffuse Solar Day Schedule Name
    ,                        !- ASHRAE Clear Sky Optical Depth for Beam Irradiance (taub) {dimensionless}
    ,                        !- ASHRAE Clear Sky Optical Depth for Diffuse Irradiance (taud) {dimensionless}
    0.98;                    !- Sky Clearness

  SizingPeriod:DesignDay,
    Summer Design Day in test_1 (O1-O1:31-12) Sep,  !- Name
    9,                       !- Month
    15,                      !- Day of Month
    SummerDesignDay,         !- Day Type
    31.9,                    !- Maximum Dry-Bulb Temperature {C}
    12.8,                    !- Daily Dry-Bulb Temperature Range {deltaC}
    ,                        !- Dry-Bulb Temperature Range Modifier Type
    ,                        !- Dry-Bulb Temperature Range Modifier Day Schedule Name
    WetBulb,                 !- Humidity Condition Type
    21.1,                    !- Wetbulb or DewPoint at Maximum Dry-Bulb {C}
    ,                        !- Humidity Condition Day Schedule Name
    ,                        !- Humidity Ratio at Maximum Dry-Bulb {kgWater/kgDryAir}
    ,                        !- Enthalpy at Maximum Dry-Bulb {J/kg}
    ,                        !- Daily Wet-Bulb Temperature Range {deltaC}
    100666,                  !- Barometric Pressure {Pa}
    0,                       !- Wind Speed {m/s}
    0,                       !- Wind Direction {deg}
    No,                      !- Rain Indicator
    No,                      !- Snow Indicator
    No,                      !- Daylight Saving Time Indicator
    ASHRAEClearSky,          !- Solar Model Indicator
    ,                        !- Beam Solar Day Schedule Name
    ,                        !- Diffuse Solar Day Schedule Name
    ,                        !- ASHRAE Clear Sky Optical Depth for Beam Irradiance (taub) {dimensionless}
    ,                        !- ASHRAE Clear Sky Optical Depth for Diffuse Irradiance (taud) {dimensionless}
    0.98;                    !- Sky Clearness

  SizingPeriod:DesignDay,
    Winter Design Day in test_1 (O1-O1:31-12),  !- Name
    1,                       !- Month
    15,                      !- Day of Month
    WinterDesignDay,         !- Day Type
    -11,                     !- Maximum Dry-Bulb Temperature {C}
    0,                       !- Daily Dry-Bulb Temperature Range {deltaC}
    ,                        !- Dry-Bulb Temperature Range Modifier Type
    ,                        !- Dry-Bulb Temperature Range Modifier Day Schedule Name
    WetBulb,                 !- Humidity Condition Type
    -11,                     !- Wetbulb or DewPoint at Maximum Dry-Bulb {C}
    ,                        !- Humidity Condition Day Schedule Name
    ,                        !- Humidity Ratio at Maximum Dry-Bulb {kgWater/kgDryAir}
    ,                        !- Enthalpy at Maximum Dry-Bulb {J/kg}
    ,                        !- Daily Wet-Bulb Temperature Range {deltaC}
    100666,                  !- Barometric Pressure {Pa}
    12.2,                    !- Wind Speed {m/s}
    0,                       !- Wind Direction {deg}
    No,                      !- Rain Indicator
    No,                      !- Snow Indicator
    No,                      !- Daylight Saving Time Indicator
    ,                        !- Solar Model Indicator
    ,                        !- Beam Solar Day Schedule Name
    ,                        !- Diffuse Solar Day Schedule Name
    ,                        !- ASHRAE Clear Sky Optical Depth for Beam Irradiance (taub) {dimensionless}
    ,                        !- ASHRAE Clear Sky Optical Depth for Diffuse Irradiance (taud) {dimensionless}
    0;                       !- Sky Clearness

  Timestep,2;

  ConvergenceLimits,
    1,                       !- Minimum System Timestep {minutes}
    25;                      !- Maximum HVAC Iterations

  ScheduleTypeLimits,
    Any Number;              !- Name

  ScheduleTypeLimits,
    Fraction,                !- Name
    0.0,                     !- Lower Limit Value
    1.0,                     !- Upper Limit Value
    CONTINUOUS;              !- Numeric Type

  ScheduleTypeLimits,
    Temperature,             !- Name
    -60,                     !- Lower Limit Value
    200,                     !- Upper Limit Value
    CONTINUOUS;              !- Numeric Type

  ScheduleTypeLimits,
    Control Type,            !- Name
    0,                       !- Lower Limit Value
    4,                       !- Upper Limit Value
    DISCRETE;                !- Numeric Type

  ScheduleTypeLimits,
    On/Off,                  !- Name
    0,                       !- Lower Limit Value
    1,                       !- Upper Limit Value
    DISCRETE;                !- Numeric Type

  Schedule:Compact,
    On,                      !- Name
    Any Number,              !- Schedule Type Limits Name
    Through: 12/31,          !- Field 1
    For: AllDays,            !- Field 2
    Until: 24:00,1;          !- Field 3

  Schedule:Compact,
    Off,                     !- Name
    Any Number,              !- Schedule Type Limits Name
    Through: 12/31,          !- Field 1
    For: AllDays,            !- Field 2
    Until: 24:00,0;          !- Field 3

  Schedule:Compact,
    Work efficiency,         !- Name
    Any Number,              !- Schedule Type Limits Name
    Through: 12/31,          !- Field 1
    For: AllDays,            !- Field 2
    Until: 24:00,0;          !- Field 3

  Schedule:Compact,
    OpaqueShade,             !- Name
    Any Number,              !- Schedule Type Limits Name
    Through: 12/31,          !- Field 1
    For: AllDays,            !- Field 2
    Until: 24:00,0;          !- Field 3

  Schedule:Compact,
    Zone Comfort Control Type Sched,  !- Name
    Control Type,            !- Schedule Type Limits Name
    Through: 12/31,          !- Field 1
    For: AllDays,            !- Field 2
    Until: 24:00,4;          !- Field 3

  Schedule:Compact,
    Design Days Only,        !- Name
    Any Number,              !- Schedule Type Limits Name
    Through: 12/31,          !- Field 1
    For: SummerDesignDay WinterDesignDay, !- Field 2
    Until: 24:00,1,          !- Field 3
    For: AllOtherDays,       !- Field 5
    Until: 24:00,0;          !- Field 6

! off heating day

  Schedule:Day:Hourly,
    0,                       !- Name
    Any Number,              !- Schedule Type Limits Name
    0,                       !- Hour 1
    0,                       !- Hour 2
    0,                       !- Hour 3
    0,                       !- Hour 4
    0,                       !- Hour 5
    0,                       !- Hour 6
    0,                       !- Hour 7
    0,                       !- Hour 8
    0,                       !- Hour 9
    0,                       !- Hour 10
    0,                       !- Hour 11
    0,                       !- Hour 12
    0,                       !- Hour 13
    0,                       !- Hour 14
    0,                       !- Hour 15
    0,                       !- Hour 16
    0,                       !- Hour 17
    0,                       !- Hour 18
    0,                       !- Hour 19
    0,                       !- Hour 20
    0,                       !- Hour 21
    0,                       !- Hour 22
    0,                       !- Hour 23
    0;                       !- Hour 24

! off cooling day

  Schedule:Day:Hourly,
    50,                      !- Name
    Any Number,              !- Schedule Type Limits Name
    50,                      !- Hour 1
    50,                      !- Hour 2
    50,                      !- Hour 3
    50,                      !- Hour 4
    50,                      !- Hour 5
    50,                      !- Hour 6
    50,                      !- Hour 7
    50,                      !- Hour 8
    50,                      !- Hour 9
    50,                      !- Hour 10
    50,                      !- Hour 11
    50,                      !- Hour 12
    50,                      !- Hour 13
    50,                      !- Hour 14
    50,                      !- Hour 15
    50,                      !- Hour 16
    50,                      !- Hour 17
    50,                      !- Hour 18
    50,                      !- Hour 19
    50,                      !- Hour 20
    50,                      !- Hour 21
    50,                      !- Hour 22
    50,                      !- Hour 23
    50;                      !- Hour 24

! used in seasonal schedules

  Schedule:Day:Hourly,
    Off,                     !- Name
    Fraction,                !- Schedule Type Limits Name
    0,                       !- Hour 1
    0,                       !- Hour 2
    0,                       !- Hour 3
    0,                       !- Hour 4
    0,                       !- Hour 5
    0,                       !- Hour 6
    0,                       !- Hour 7
    0,                       !- Hour 8
    0,                       !- Hour 9
    0,                       !- Hour 10
    0,                       !- Hour 11
    0,                       !- Hour 12
    0,                       !- Hour 13
    0,                       !- Hour 14
    0,                       !- Hour 15
    0,                       !- Hour 16
    0,                       !- Hour 17
    0,                       !- Hour 18
    0,                       !- Hour 19
    0,                       !- Hour 20
    0,                       !- Hour 21
    0,                       !- Hour 22
    0,                       !- Hour 23
    0;                       !- Hour 24

  Schedule:Week:Daily,
    Off,                     !- Name
    Off,                     !- Sunday Schedule:Day Name
    Off,                     !- Monday Schedule:Day Name
    Off,                     !- Tuesday Schedule:Day Name
    Off,                     !- Wednesday Schedule:Day Name
    Off,                     !- Thursday Schedule:Day Name
    Off,                     !- Friday Schedule:Day Name
    Off,                     !- Saturday Schedule:Day Name
    Off,                     !- Holiday Schedule:Day Name
    Off,                     !- SummerDesignDay Schedule:Day Name
    Off,                     !- WinterDesignDay Schedule:Day Name
    Off,                     !- CustomDay1 Schedule:Day Name
    Off;                     !- CustomDay2 Schedule:Day Name

! -------------------- Control type schedules (for heating & cooling) ----------------------

  Schedule:Day:Hourly,
    Summer Control Type Day Sch,  !- Name
    Control Type,            !- Schedule Type Limits Name
    4,                       !- Hour 1
    4,                       !- Hour 2
    4,                       !- Hour 3
    4,                       !- Hour 4
    4,                       !- Hour 5
    4,                       !- Hour 6
    4,                       !- Hour 7
    4,                       !- Hour 8
    4,                       !- Hour 9
    4,                       !- Hour 10
    4,                       !- Hour 11
    4,                       !- Hour 12
    4,                       !- Hour 13
    4,                       !- Hour 14
    4,                       !- Hour 15
    4,                       !- Hour 16
    4,                       !- Hour 17
    4,                       !- Hour 18
    4,                       !- Hour 19
    4,                       !- Hour 20
    4,                       !- Hour 21
    4,                       !- Hour 22
    4,                       !- Hour 23
    4;                       !- Hour 24

  Schedule:Day:Hourly,
    Winter Control Type Day Sch,  !- Name
    Control Type,            !- Schedule Type Limits Name
    4,                       !- Hour 1
    4,                       !- Hour 2
    4,                       !- Hour 3
    4,                       !- Hour 4
    4,                       !- Hour 5
    4,                       !- Hour 6
    4,                       !- Hour 7
    4,                       !- Hour 8
    4,                       !- Hour 9
    4,                       !- Hour 10
    4,                       !- Hour 11
    4,                       !- Hour 12
    4,                       !- Hour 13
    4,                       !- Hour 14
    4,                       !- Hour 15
    4,                       !- Hour 16
    4,                       !- Hour 17
    4,                       !- Hour 18
    4,                       !- Hour 19
    4,                       !- Hour 20
    4,                       !- Hour 21
    4,                       !- Hour 22
    4,                       !- Hour 23
    4;                       !- Hour 24

  Schedule:Day:Hourly,
    Summer Control Type Day Sch - cool,  !- Name
    Control Type,            !- Schedule Type Limits Name
    2,                       !- Hour 1
    2,                       !- Hour 2
    2,                       !- Hour 3
    2,                       !- Hour 4
    2,                       !- Hour 5
    2,                       !- Hour 6
    2,                       !- Hour 7
    2,                       !- Hour 8
    2,                       !- Hour 9
    2,                       !- Hour 10
    2,                       !- Hour 11
    2,                       !- Hour 12
    2,                       !- Hour 13
    2,                       !- Hour 14
    2,                       !- Hour 15
    2,                       !- Hour 16
    2,                       !- Hour 17
    2,                       !- Hour 18
    2,                       !- Hour 19
    2,                       !- Hour 20
    2,                       !- Hour 21
    2,                       !- Hour 22
    2,                       !- Hour 23
    2;                       !- Hour 24

  Schedule:Day:Hourly,
    Winter Control Type Day Sch - heat,  !- Name
    Control Type,            !- Schedule Type Limits Name
    1,                       !- Hour 1
    1,                       !- Hour 2
    1,                       !- Hour 3
    1,                       !- Hour 4
    1,                       !- Hour 5
    1,                       !- Hour 6
    1,                       !- Hour 7
    1,                       !- Hour 8
    1,                       !- Hour 9
    1,                       !- Hour 10
    1,                       !- Hour 11
    1,                       !- Hour 12
    1,                       !- Hour 13
    1,                       !- Hour 14
    1,                       !- Hour 15
    1,                       !- Hour 16
    1,                       !- Hour 17
    1,                       !- Hour 18
    1,                       !- Hour 19
    1,                       !- Hour 20
    1,                       !- Hour 21
    1,                       !- Hour 22
    1,                       !- Hour 23
    1;                       !- Hour 24

  Schedule:Week:Daily,
    Summer Control Type Week Sch,  !- Name
    Summer Control Type Day Sch,  !- Sunday Schedule:Day Name
    Summer Control Type Day Sch,  !- Monday Schedule:Day Name
    Summer Control Type Day Sch,  !- Tuesday Schedule:Day Name
    Summer Control Type Day Sch,  !- Wednesday Schedule:Day Name
    Summer Control Type Day Sch,  !- Thursday Schedule:Day Name
    Summer Control Type Day Sch,  !- Friday Schedule:Day Name
    Summer Control Type Day Sch,  !- Saturday Schedule:Day Name
    Summer Control Type Day Sch,  !- Holiday Schedule:Day Name
    Summer Control Type Day Sch,  !- SummerDesignDay Schedule:Day Name
    Summer Control Type Day Sch,  !- WinterDesignDay Schedule:Day Name
    Summer Control Type Day Sch,  !- CustomDay1 Schedule:Day Name
    Summer Control Type Day Sch;  !- CustomDay2 Schedule:Day Name

  Schedule:Week:Daily,
    Winter Control Type Week Sch,  !- Name
    Winter Control Type Day Sch,  !- Sunday Schedule:Day Name
    Winter Control Type Day Sch,  !- Monday Schedule:Day Name
    Winter Control Type Day Sch,  !- Tuesday Schedule:Day Name
    Winter Control Type Day Sch,  !- Wednesday Schedule:Day Name
    Winter Control Type Day Sch,  !- Thursday Schedule:Day Name
    Winter Control Type Day Sch,  !- Friday Schedule:Day Name
    Winter Control Type Day Sch,  !- Saturday Schedule:Day Name
    Winter Control Type Day Sch,  !- Holiday Schedule:Day Name
    Winter Control Type Day Sch,  !- SummerDesignDay Schedule:Day Name
    Winter Control Type Day Sch,  !- WinterDesignDay Schedule:Day Name
    Winter Control Type Day Sch,  !- CustomDay1 Schedule:Day Name
    Winter Control Type Day Sch;  !- CustomDay2 Schedule:Day Name

  Schedule:Week:Daily,
    Summer Control Type Week Sch - cool,  !- Name
    Summer Control Type Day Sch - cool,  !- Sunday Schedule:Day Name
    Summer Control Type Day Sch - cool,  !- Monday Schedule:Day Name
    Summer Control Type Day Sch - cool,  !- Tuesday Schedule:Day Name
    Summer Control Type Day Sch - cool,  !- Wednesday Schedule:Day Name
    Summer Control Type Day Sch - cool,  !- Thursday Schedule:Day Name
    Summer Control Type Day Sch - cool,  !- Friday Schedule:Day Name
    Summer Control Type Day Sch - cool,  !- Saturday Schedule:Day Name
    Summer Control Type Day Sch - cool,  !- Holiday Schedule:Day Name
    Summer Control Type Day Sch - cool,  !- SummerDesignDay Schedule:Day Name
    Summer Control Type Day Sch - cool,  !- WinterDesignDay Schedule:Day Name
    Summer Control Type Day Sch - cool,  !- CustomDay1 Schedule:Day Name
    Summer Control Type Day Sch - cool;  !- CustomDay2 Schedule:Day Name

  Schedule:Week:Daily,
    Winter Control Type Week Sch - heat,  !- Name
    Winter Control Type Day Sch - heat,  !- Sunday Schedule:Day Name
    Winter Control Type Day Sch - heat,  !- Monday Schedule:Day Name
    Winter Control Type Day Sch - heat,  !- Tuesday Schedule:Day Name
    Winter Control Type Day Sch - heat,  !- Wednesday Schedule:Day Name
    Winter Control Type Day Sch - heat,  !- Thursday Schedule:Day Name
    Winter Control Type Day Sch - heat,  !- Friday Schedule:Day Name
    Winter Control Type Day Sch - heat,  !- Saturday Schedule:Day Name
    Winter Control Type Day Sch - heat,  !- Holiday Schedule:Day Name
    Winter Control Type Day Sch - heat,  !- SummerDesignDay Schedule:Day Name
    Winter Control Type Day Sch - heat,  !- WinterDesignDay Schedule:Day Name
    Winter Control Type Day Sch - heat,  !- CustomDay1 Schedule:Day Name
    Winter Control Type Day Sch - heat;  !- CustomDay2 Schedule:Day Name

!Material:InfraredTransparent,
!IRTMaterial; !- Name
!Construction,
!IRTSurface,  !- Name
!IRTMaterial; !- Outside Layer

  Material:NoMass,
    LinearBridgingLayer,     !- Name
    Rough,                   !- Roughness
    0.6267,                  !- Thermal Resistance {m2-K/W}
    0.0100000,               !- Thermal Absorptance
    0.0100000,               !- Solar Absorptance
    0.0100000;               !- Visible Absorptance

  Construction,
    LinearBridgingConstruction,  !- Name
    LinearBridgingLayer;     !- Outside Layer

  Schedule:Compact,
    TypOperativeTempControlSch,  !- Name
    Temperature,             !- Schedule Type Limits Name
    Through: 31 Dec,         !- Field 1
    For: SummerDesignDay WinterDesignDay, !- Field 2
    Until: 24:00,0.0,        !- Field 3
    For: AllOtherDays,       !- Field 5
    Until: 24:00,0.5;        !- Field 6

  Schedule:Compact,
    OnWinterDesignDay,       !- Name
    Any Number,              !- Schedule Type Limits Name
    Through: 12/31,          !- Field 1
    For: WinterDesignDay,    !- Field 2
    Until: 24:00,1,          !- Field 3
    For: AllOtherDays,       !- Field 5
    Until: 24:00,0;          !- Field 6

  Schedule:Compact,
    OnSummerDesignDay,       !- Name
    Any Number,              !- Schedule Type Limits Name
    Through: 12/31,          !- Field 1
    For: SummerDesignDay,    !- Field 2
    Until: 24:00,1,          !- Field 3
    For: AllOtherDays,       !- Field 5
    Until: 24:00,0;          !- Field 6

  Schedule:Compact,
    AirVelocitySchedule,     !- Name
    Any Number,              !- Schedule Type Limits Name
    Through: 12/31,          !- Field 1
    For: AllDays,            !- Field 2
    Until: 24:00,.137;       !- Field 3

  Material:InfraredTransparent,
    IRTMaterial;             !- Name

  Construction,
    IRTSurface,              !- Name
    IRTMaterial;             !- Outside Layer

! Profile: Off

  Schedule:Day:Interval,
    11,                      !- Name
    Any number,              !- Schedule Type Limits Name
    No,                      !- Interpolate to Timestep
    24:00,                   !- Time 1
    0;                       !- Value Until Time 1

! Profile: RENYUAN

  Schedule:Day:List,
    10000,                   !- Name
    Any number,              !- Schedule Type Limits Name
    No,                      !- Interpolate to Timestep
    60,                      !- Minutes per Item
    1,                       !- Value 1
    1,                       !- <none>
    1,                       !- <none>
    1,                       !- <none>
    1,                       !- <none>
    1,                       !- <none>
    1,                       !- <none>
    1,                       !- <none>
    1,                       !- <none>
    1,                       !- <none>
    1,                       !- <none>
    1,                       !- <none>
    1,                       !- <none>
    1,                       !- <none>
    1,                       !- <none>
    1,                       !- <none>
    1,                       !- <none>
    1,                       !- <none>
    1,                       !- <none>
    1,                       !- <none>
    1,                       !- <none>
    1,                       !- <none>
    1,                       !- <none>
    1;                       !- <none>

! Profile: SHEBEI

  Schedule:Day:List,
    10001,                   !- Name
    Any number,              !- Schedule Type Limits Name
    No,                      !- Interpolate to Timestep
    60,                      !- Minutes per Item
    0,                       !- Value 1
    0,                       !- <none>
    0,                       !- <none>
    0,                       !- <none>
    0,                       !- <none>
    0,                       !- <none>
    .65,                     !- <none>
    .75,                     !- <none>
    .35,                     !- <none>
    .2,                      !- <none>
    .2,                      !- <none>
    .4,                      !- <none>
    .35,                     !- <none>
    .2,                      !- <none>
    .2,                      !- <none>
    .2,                      !- <none>
    .2,                      !- <none>
    .4,                      !- <none>
    .35,                     !- <none>
    .35,                     !- <none>
    .6,                      !- <none>
    .4,                      !- <none>
    0,                       !- <none>
    0;                       !- <none>

! Profile: dengguang

  Schedule:Day:List,
    10002,                   !- Name
    Any number,              !- Schedule Type Limits Name
    No,                      !- Interpolate to Timestep
    60,                      !- Minutes per Item
    0,                       !- Value 1
    0,                       !- <none>
    0,                       !- <none>
    0,                       !- <none>
    0,                       !- <none>
    .65,                     !- <none>
    .65,                     !- <none>
    0,                       !- <none>
    0,                       !- <none>
    0,                       !- <none>
    0,                       !- <none>
    0,                       !- <none>
    0,                       !- <none>
    0,                       !- <none>
    0,                       !- <none>
    0,                       !- <none>
    0,                       !- <none>
    .1,                      !- <none>
    .4,                      !- <none>
    .4,                      !- <none>
    .6,                      !- <none>
    .4,                      !- <none>
    0,                       !- <none>
    0;                       !- <none>

! Modified profile: RENYUAN

  Schedule:Day:List,
    10000_-50_12_18,         !- Name
    Any number,              !- Schedule Type Limits Name
    No,                      !- Interpolate to Timestep
    60,                      !- Minutes per Item
    18,                      !- Value 1
    18,                      !- <none>
    18,                      !- <none>
    18,                      !- <none>
    18,                      !- <none>
    18,                      !- <none>
    18,                      !- <none>